onBus174_CROSSHILL.m
function mpc = onBus174_123_CROSSHILL
%   Made by Tao Ding, Tsinghua University (Also a visiting scholar of The
%   University of Tennessee, Knoxville).

%   Thanks to the help of Linquan Bai and Xue Li, who are the Ph.D. student
%   of The University of Tennessee, Knoxville
%   2014/03/10
%% MATPOWER Case Format : Version 2
mpc.version = '2';

%%-----  Power Flow Data  -----%%
%% system MVA base
mpc.baseMVA = 100;

%% bus data
%	bus_i	type	Pd	Qd	Gs	Bs	area	Vm	Va	baseKV	zone	Vmax	Vmin
mpc.bus=[   
1	3	0	0	0	0	1	1	0	100	1	1.1	0.9
2	1	1.052	0.526	0	0	1	1	0	100	1	1.1	0.9
3	1	0	0	0	0	1	1	0	100	1	1.1	0.9
4	1	2.104	1.052	0	0	1	1	0	100	1	1.1	0.9
5	1	1.052	0.526	0	0	1	1	0	100	1	1.1	0.9
6	1	2.104	1.052	0	0	1	1	0	100	1	1.1	0.9
7	1	1.052	0.526	0	0	1	1	0	100	1	1.1	0.9
8	1	0	0	0	0	1	1	0	100	1	1.1	0.9
9	1	2.104	1.052	0	0	1	1	0	100	1	1.1	0.9
10	1	1.052	0.526	0	0	1	1	0	100	1	1.1	0.9
11	1	2.104	1.052	0	0	1	1	0	100	1	1.1	0.9
12	1	1.052	0.526	0	0	1	1	0	100	1	1.1	0.9
13	1	0	0	0	0	1	1	0	100	1	1.1	0.9
14	1	0	0	0	0	1	1	0	100	1	1.1	0.9
15	1	0	0	0	0	1	1	0	100	1	1.1	0.9
16	1	2.104	1.052	0	0	1	1	0	100	1	1.1	0.9
17	1	1.052	0.526	0	0	1	1	0	100	1	1.1	0.9
18	1	0	0	0	0	1	1	0	100	1	1.1	0.9
19	1	2.104	1.052	0	0	1	1	0	100	1	1.1	0.9
20	1	2.104	1.052	0	0	1	1	0	100	1	1.1	0.9
21	1	0	0	0	0	1	1	0	100	1	1.1	0.9
22	1	2.104	1.052	0	0	1	1	0	100	1	1.1	0.9
23	1	0	0	0	0	1	1	0	100	1	1.1	0.9
24	1	2.104	1.052	0	0	1	1	0	100	1	1.1	0.9
25	1	0	0	0	0	1	1	0	100	1	1.1	0.9
26	1	0	0	0	0	1	1	0	100	1	1.1	0.9
27	1	0	0	0	0	1	1	0	100	1	1.1	0.9
28	1	2.104	1.052	0	0	1	1	0	100	1	1.1	0.9
29	1	2.104	1.052	0	0	1	1	0	100	1	1.1	0.9
30	1	2.104	1.052	0	0	1	1	0	100	1	1.1	0.9
31	1	1.052	0.526	0	0	1	1	0	100	1	1.1	0.9
32	1	1.052	0.526	0	0	1	1	0	100	1	1.1	0.9
33	1	2.104	1.052	0	0	1	1	0	100	1	1.1	0.9
34	1	2.104	1.052	0	0	1	1	0	100	1	1.1	0.9
35	1	2.104	1.052	0	0	1	1	0	100	1	1.1	0.9
36	1	0	0	0	0	1	1	0	100	1	1.1	0.9
37	1	2.104	1.052	0	0	1	1	0	100	1	1.1	0.9
38	1	1.052	0.526	0	0	1	1	0	100	1	1.1	0.9
39	1	1.052	0.526	0	0	1	1	0	100	1	1.1	0.9
40	1	0	0	0	0	1	1	0	100	1	1.1	0.9
41	1	1.052	0.526	0	0	1	1	0	100	1	1.1	0.9
42	1	1.052	0.526	0	0	1	1	0	100	1	1.1	0.9
43	1	2.104	1.052	0	0	1	1	0	100	1	1.1	0.9
44	1	0	0	0	0	1	1	0	100	1	1.1	0.9
45	1	1.052	0.526	0	0	1	1	0	100	1	1.1	0.9
46	1	1.052	0.526	0	0	1	1	0	100	1	1.1	0.9
47	1	5.523	3.945	0	0	1	1	0	100	1	1.1	0.9
48	1	11.046	7.89	0	0	1	1	0	100	1	1.1	0.9
49	1	7.364	4.997	0	0	1	1	0	100	1	1.1	0.9
50	1	2.104	1.052	0	0	1	1	0	100	1	1.1	0.9
51	1	1.052	0.526	0	0	1	1	0	100	1	1.1	0.9
52	1	2.104	1.052	0	0	1	1	0	100	1	1.1	0.9
53	1	2.104	1.052	0	0	1	1	0	100	1	1.1	0.9
54	1	0	0	0	0	1	1	0	100	1	1.1	0.9
55	1	1.052	0.526	0	0	1	1	0	100	1	1.1	0.9
56	1	1.052	0.526	0	0	1	1	0	100	1	1.1	0.9
57	1	0	0	0	0	1	1	0	100	1	1.1	0.9
58	1	1.052	0.526	0	0	1	1	0	100	1	1.1	0.9
59	1	1.052	0.526	0	0	1	1	0	100	1	1.1	0.9
60	1	1.052	0.526	0	0	1	1	0	100	1	1.1	0.9
61	1	0	0	0	0	1	1	0	100	1	1.1	0.9
62	1	2.104	1.052	0	0	1	1	0	100	1	1.1	0.9
63	1	2.104	1.052	0	0	1	1	0	100	1	1.1	0.9
64	1	3.945	1.841	0	0	1	1	0	100	1	1.1	0.9
65	1	7.364	5.26	0	0	1	1	0	100	1	1.1	0.9
66	1	3.945	1.841	0	0	1	1	0	100	1	1.1	0.9
67	1	0	0	0	0	1	1	0	100	1	1.1	0.9
68	1	1.052	0.526	0	0	1	1	0	100	1	1.1	0.9
69	1	2.104	1.052	0	0	1	1	0	100	1	1.1	0.9
70	1	1.052	0.526	0	0	1	1	0	100	1	1.1	0.9
71	1	2.104	1.052	0	0	1	1	0	100	1	1.1	0.9
72	1	0	0	0	0	1	1	0	100	1	1.1	0.9
73	1	2.104	1.052	0	0	1	1	0	100	1	1.1	0.9
74	1	2.104	1.052	0	0	1	1	0	100	1	1.1	0.9
75	1	2.104	1.052	0	0	1	1	0	100	1	1.1	0.9
76	1	12.887	9.468	0	0	1	1	0	100	1	1.1	0.9
77	1	2.104	1.052	0	0	1	1	0	100	1	1.1	0.9
78	1	0	0	0	0	1	1	0	100	1	1.1	0.9
79	1	2.104	1.052	0	0	1	1	0	100	1	1.1	0.9
80	1	2.104	1.052	0	0	1	1	0	100	1	1.1	0.9
81	1	0	0	0	0	1	1	0	100	1	1.1	0.9
82	1	2.104	1.052	0	0	1	1	0	100	1	1.1	0.9
83	1	1.052	0.526	0	0	1	1	0	100	1	1.1	0.9
84	1	1.052	0.526	0	0	1	1	0	100	1	1.1	0.9
85	1	2.104	1.052	0	0	1	1	0	100	1	1.1	0.9
86	1	1.052	0.526	0	0	1	1	0	100	1	1.1	0.9
87	1	2.104	1.052	0	0	1	1	0	100	1	1.1	0.9
88	1	2.104	1.052	0	0	1	1	0	100	1	1.1	0.9
89	1	0	0	0	0	1	1	0	100	1	1.1	0.9
90	1	2.104	1.052	0	0	1	1	0	100	1	1.1	0.9
91	1	0	0	0	0	1	1	0	100	1	1.1	0.9
92	1	2.104	1.052	0	0	1	1	0	100	1	1.1	0.9
93	1	0	0	0	0	1	1	0	100	1	1.1	0.9
94	1	2.104	1.052	0	0	1	1	0	100	1	1.1	0.9
95	1	1.052	0.526	0	0	1	1	0	100	1	1.1	0.9
96	1	1.052	0.526	0	0	1	1	0	100	1	1.1	0.9
97	1	0	0	0	0	1	1	0	100	1	1.1	0.9
98	1	2.104	1.052	0	0	1	1	0	100	1	1.1	0.9
99	1	2.104	1.052	0	0	1	1	0	100	1	1.1	0.9
100	1	2.104	1.052	0	0	1	1	0	100	1	1.1	0.9
101	1	0	0	0	0	1	1	0	100	1	1.1	0.9
102	1	1.052	0.526	0	0	1	1	0	100	1	1.1	0.9
103	1	2.104	1.052	0	0	1	1	0	100	1	1.1	0.9
104	1	2.104	1.052	0	0	1	1	0	100	1	1.1	0.9
105	1	0	0	0	0	1	1	0	100	1	1.1	0.9
106	1	2.104	1.052	0	0	1	1	0	100	1	1.1	0.9
107	1	2.104	1.052	0	0	1	1	0	100	1	1.1	0.9
108	1	0	0	0	0	1	1	0	100	1	1.1	0.9
109	1	2.104	1.052	0	0	1	1	0	100	1	1.1	0.9
110	1	0	0	0	0	1	1	0	100	1	1.1	0.9
111	1	1.052	0.526	0	0	1	1	0	100	1	1.1	0.9
112	1	1.052	0.526	0	0	1	1	0	100	1	1.1	0.9
113	1	2.104	1.052	0	0	1	1	0	100	1	1.1	0.9
114	1	1.052	0.526	0	0	1	1	0	100	1	1.1	0.9
115	1	0	0	0	0	1	1	0	100	1	1.1	0.9
116	1	0	0	0	0	1	1	0	100	1	1.1	0.9
117	1	0	0	0	0	1	1	0	100	1	1.1	0.9
118	1	0	0	0	0	1	1	0	100	1	1.1	0.9
119	1	0	0	0	0	1	1	0	100	1	1.1	0.9
120	1	0	0	0	0	1	1	0	100	1	1.1	0.9
121	1	0	0	0	0	1	1	0	100	1	1.1	0.9
122	1	0	0	0	0	1	1	0	100	1	1.1	0.9
123	1	2.104	1.052	0	0	1	1	0	100	1	1.1	0.9
  ];
%% generator data
%	bus	Pg	Qg	Qmax	Qmin	Vg	mBase	status	Pmax	Pmin	Pc1	Pc2	Qc1min	Qc1max	Qc2min	Qc2max	ramp_agc	ramp_10	ramp_30	ramp_q	apf
mpc.gen = [
	18	0	0	200	2.0	1	100	1	30	0	0	0	0	0	0	0	0	0	0	0	0;
    67	0	0	160	1.6	1	100	1	25	0	0	0	0	0	0	0	0	0	0	0	0;
];
mpc.gasgen = [
	35	0	0	0	0	1	100	1	25	0	0	0	0	0	0	0	0	0	0	0	0;
    108	0	0	0	0	1	100	1	10	0	0	0	0	0	0	0	0	0	0	0	0;   
];
%	bus	Emax	Emin	Qmax	Qmin	Vg	mBase	status	Pmax	Pmin	Pc1	Pc2	Qc1min	Qc1max	Qc2min	Qc2max	ramp_agc	ramp_10	ramp_30	ramp_q	apf
mpc.battery = [
    76	20	0	0	0	1	100	1	5	0	0	0	0	0	0	0	0	0	0	0	0;
];

%% branch data
%	fbus	tbus	r	x	b	rateA	rateB	rateC	ratio	angle	status	angmin	angmax
mpc.branch=[
123	3	0.00036	0.00037	0	250	250	250	0	0	1	0	1
123	7	0.00015	0.00035	0	250	250	250	0	0	1	0	1
3	4	0.00029	0.00029	0	250	250	250	0	0	1	0	1
3	5	0.00047	0.00048	0	250	250	250	0	0	1	0	1
5	6	0.00036	0.00037	0	250	250	250	0	0	1	0	1
7	8	0.0001	0.00024	0	250	250	250	0	0	1	0	1
8	12	0.00033	0.00033	0	250	250	250	0	0	1	0	1
8	9	0.00033	0.00033	0	250	250	250	0	0	1	0	1
8	13	0.00015	0.00035	0	250	250	250	0	0	1	0	1
9	14	0.00062	0.00063	0	250	250	250	0	0	1	0	1
13	34	0.00022	0.00022	0	250	250	250	0	0	1	0	1
13	18	0.00042	0.00095	0	250	250	250	0	0	1	0	1
14	11	0.00036	0.00037	0	250	250	250	0	0	1	0	1
14	10	0.00036	0.00037	0	250	250	250	0	0	1	0	1
15	16	0.00055	0.00055	0	250	250	250	0	0	1	0	1
15	17	0.00051	0.00052	0	250	250	250	0	0	1	0	1
18	19	0.00036	0.00037	0	250	250	250	0	0	1	0	1
18	21	0.00015	0.00034	0	250	250	250	0	0	1	0	1
19	20	0.00047	0.00048	0	250	250	250	0	0	1	0	1
21	22	0.00076	0.00077	0	250	250	250	0	0	1	0	1
21	23	0.00013	0.00029	0	250	250	250	0	0	1	0	1
23	24	0.0008	0.00081	0	250	250	250	0	0	1	0	1
23	25	0.00014	0.00032	0	250	250	250	0	0	1	0	1
25	26	0.00018	0.00041	0	250	250	250	0	0	1	0	1
25	28	0.0001	0.00023	0	250	250	250	0	0	1	0	1
26	27	0.00014	0.00032	0	250	250	250	0	0	1	0	1
26	31	0.00033	0.00033	0	250	250	250	0	0	1	0	1
27	33	0.00073	0.00074	0	250	250	250	0	0	1	0	1
28	29	0.00015	0.00034	0	250	250	250	0	0	1	0	1
29	30	0.00018	0.0004	0	250	250	250	0	0	1	0	1
30	122	0.0001	0.00023	0	250	250	250	0	0	1	0	1
31	32	0.00044	0.00044	0	250	250	250	0	0	1	0	1
34	15	0.00015	0.00015	0	250	250	250	0	0	1	0	1
35	36	0.00033	0.00077	0	250	250	250	0	0	1	0	1
35	40	0.00013	0.00029	0	250	250	250	0	0	1	0	1
36	37	0.00044	0.00044	0	250	250	250	0	0	1	0	1
36	38	0.00036	0.00037	0	250	250	250	0	0	1	0	1
38	39	0.00047	0.00048	0	250	250	250	0	0	1	0	1
40	41	0.00047	0.00048	0	250	250	250	0	0	1	0	1
40	42	0.00013	0.00029	0	250	250	250	0	0	1	0	1
42	43	0.00073	0.00074	0	250	250	250	0	0	1	0	1
42	44	0.0001	0.00024	0	250	250	250	0	0	1	0	1
44	45	0.00029	0.00029	0	250	250	250	0	0	1	0	1
44	47	0.00013	0.00029	0	250	250	250	0	0	1	0	1
45	46	0.00044	0.00044	0	250	250	250	0	0	1	0	1
47	48	8.00E-05	0.00017	0	250	250	250	0	0	1	0	1
47	49	0.00013	0.00029	0	250	250	250	0	0	1	0	1
49	50	0.00013	0.00029	0	250	250	250	0	0	1	0	1
50	51	0.00013	0.00029	0	250	250	250	0	0	1	0	1
51	116	0.00025	0.00058	0	250	250	250	0	0	1	0	1
52	53	0.0001	0.00024	0	250	250	250	0	0	1	0	1
53	54	6.00E-05	0.00015	0	250	250	250	0	0	1	0	1
54	55	0.00014	0.00032	0	250	250	250	0	0	1	0	1
54	57	0.00018	0.00041	0	250	250	250	0	0	1	0	1
55	56	0.00014	0.00032	0	250	250	250	0	0	1	0	1
57	58	0.00036	0.00037	0	250	250	250	0	0	1	0	1
57	60	0.00038	0.00087	0	250	250	250	0	0	1	0	1
58	59	0.00036	0.00037	0	250	250	250	0	0	1	0	1
60	61	0.00028	0.00063	0	250	250	250	0	0	1	0	1
60	62	0.00042	0.00021	0	250	250	250	0	0	1	0	1
62	63	0.00029	0.00014	0	250	250	250	0	0	1	0	1
63	64	0.00058	0.00029	0	250	250	250	0	0	1	0	1
64	65	0.00071	0.00035	0	250	250	250	0	0	1	0	1
65	66	0.00054	0.00027	0	250	250	250	0	0	1	0	1
67	68	0.00029	0.00029	0	250	250	250	0	0	1	0	1
67	72	0.00014	0.00032	0	250	250	250	0	0	1	0	1
67	97	0.00013	0.00029	0	250	250	250	0	0	1	0	1
68	69	0.0004	0.00041	0	250	250	250	0	0	1	0	1
69	70	0.00047	0.00048	0	250	250	250	0	0	1	0	1
70	71	0.0004	0.00041	0	250	250	250	0	0	1	0	1
72	73	0.0004	0.00041	0	250	250	250	0	0	1	0	1
72	76	0.0001	0.00023	0	250	250	250	0	0	1	0	1
73	74	0.00051	0.00052	0	250	250	250	0	0	1	0	1
74	75	0.00058	0.00059	0	250	250	250	0	0	1	0	1
76	77	0.0002	0.00047	0	250	250	250	0	0	1	0	1
76	86	0.00035	0.00082	0	250	250	250	0	0	1	0	1
77	78	5.00E-05	0.00012	0	250	250	250	0	0	1	0	1
78	79	0.00011	0.00027	0	250	250	250	0	0	1	0	1
78	80	0.00024	0.00056	0	250	250	250	0	0	1	0	1
80	81	0.00024	0.00056	0	250	250	250	0	0	1	0	1
81	82	0.00013	0.00029	0	250	250	250	0	0	1	0	1
81	84	0.00098	0.001	0	250	250	250	0	0	1	0	1
82	83	0.00013	0.00029	0	250	250	250	0	0	1	0	1
84	85	0.00069	0.0007	0	250	250	250	0	0	1	0	1
86	87	0.00023	0.00053	0	250	250	250	0	0	1	0	1
87	88	0.00025	0.00026	0	250	250	250	0	0	1	0	1
87	89	0.00014	0.00032	0	250	250	250	0	0	1	0	1
89	90	0.00033	0.00033	0	250	250	250	0	0	1	0	1
89	91	0.00011	0.00027	0	250	250	250	0	0	1	0	1
91	92	0.00044	0.00044	0	250	250	250	0	0	1	0	1
91	93	0.00011	0.00027	0	250	250	250	0	0	1	0	1
93	94	0.0004	0.00041	0	250	250	250	0	0	1	0	1
93	95	0.00015	0.00035	0	250	250	250	0	0	1	0	1
95	96	0.00029	0.00029	0	250	250	250	0	0	1	0	1
97	98	0.00014	0.00032	0	250	250	250	0	0	1	0	1
98	99	0.00028	0.00064	0	250	250	250	0	0	1	0	1
99	100	0.00015	0.00035	0	250	250	250	0	0	1	0	1
100	118	0.0004	0.00093	0	250	250	250	0	0	1	0	1
101	102	0.00033	0.00033	0	250	250	250	0	0	1	0	1
101	105	0.00014	0.00032	0	250	250	250	0	0	1	0	1
102	103	0.00047	0.00048	0	250	250	250	0	0	1	0	1
103	104	0.00102	0.00103	0	250	250	250	0	0	1	0	1
105	106	0.00033	0.00033	0	250	250	250	0	0	1	0	1
105	108	0.00016	0.00038	0	250	250	250	0	0	1	0	1
106	107	0.00084	0.00085	0	250	250	250	0	0	1	0	1
108	109	0.00065	0.00066	0	250	250	250	0	0	1	0	1
108	115	0.00051	0.00117	0	250	250	250	0	0	1	0	1
109	110	0.00044	0.00044	0	250	250	250	0	0	1	0	1
110	111	0.00084	0.00085	0	250	250	250	0	0	1	0	1
110	112	0.00018	0.00018	0	250	250	250	0	0	1	0	1
112	113	0.00076	0.00077	0	250	250	250	0	0	1	0	1
113	114	0.00047	0.00048	0	250	250	250	0	0	1	0	1
121	35	0.00019	0.00044	0	250	250	250	0	0	1	0	1
1	123	0.0002	0.00047	0	250	250	250	0	0	1	0	1
120	52	0.0002	0.00047	0	250	250	250	0	0	1	0	1
119	67	0.00018	0.00041	0	250	250	250	0	0	1	0	1
117	101	0.00013	0.00029	0	250	250	250	0	0	1	0	1
18	121	0.00013	0.00029	0	250	250	250	0	0	1	0	1
13	120	0.00013	0.00029	0	250	250	250	0	0	1	0	1
60	119	0.00013	0.00029	0	250	250	250	0	0	1	0	1
116	115	0.00013	0.00029	0	250	250	250	0	0	1	0	1
 ];

%%-----  OPF Data  -----%%
%% generator cost data
%	1	startup	shutdown	n	x1	y1	...	xn	yn 
%	2	startup	shutdown	n	c(n-1)	...	c0 
mpc.gencost = [
	2	0	0	3	0.025	50	0;
	2	0	0	3	0.025	60	0;
    2	0	0	3	0.05	5	0;
];   
%% number
mpc.nBus = size(mpc.bus,1);
mpc.nBranch = size(mpc.branch,1);
mpc.nDgen = size(mpc.gen,1);
mpc.nGtur = size(mpc.gasgen,1);
mpc.nBatr = size(mpc.battery,1);
%% elec load curve
mpc.loadcurve = [266.32
254.85
262.35
269.96
271.48
257.48
248.28
247.74
255.38
251.25
255.58
248.71
262.94
265.88
263.49
258.23
256.32
251.39
254.78
263.88
258.65
246.51
243.44
249
];

mpc.loadcurve = mpc.loadcurve/(max(mpc.loadcurve));%Normalized to take the shape of its load curve
